{
   "completed_at" : "20210118T064039Z",
   "completed_status" : "Success",
   "created_at" : "20210118T063909Z",
   "current_step" : 6,
   "eplusout_err" : "Program Version,EnergyPlus, Version 9.3.0-baff08990c, YMD=2021.01.17 22:39,\n   ** Warning ** ProcessScheduleInput: Schedule:Constant=\"ALWAYS ON DISCRETE\", Blank Schedule Type Limits Name input -- will not be validated.\n   ** Warning ** ProcessScheduleInput: Schedule:Constant=\"ALWAYS ON DISCRETE 1\", Blank Schedule Type Limits Name input -- will not be validated.\n   ** Warning ** ProcessScheduleInput: Schedule:Constant=\"ALWAYS OFF DISCRETE\", Blank Schedule Type Limits Name input -- will not be validated.\n   ** Warning ** ProcessScheduleInput: Schedule:Constant=\"ALWAYS ON CONTINUOUS\", Blank Schedule Type Limits Name input -- will not be validated.\n   ** Warning ** No floor exists in Zone=\"PLENUMZONE\", zone floor area is zero. All values for this zone that are entered per floor area will be zero.\n   ** Warning ** ComputeIntSolarAbsorpFactors: Solar distribution model is set to place solar gains on the zone floor,\n   **   ~~~   ** ...Enclosure=\"PLENUMZONE\" has no floor, but has approximate horizontal surfaces.\n   **   ~~~   ** ...these Tilt > 120 degrees, (area=[0.12] m2) will be used.\n   ** Warning ** Output:Meter: invalid Key Name=\"GAS:FACILITY\" - not found.\n   ** Warning ** Output:Meter:MeterFileOnly: invalid Key Name=\"GAS:FACILITY\" - not found.\n   ** Warning ** Output:Meter:MeterFileOnly requested for \"Electricity:Facility\" (TimeStep), already on \"Output:Meter\". Will report to both eplusout.eso and eplusout.mtr\n   ************* Testing Individual Branch Integrity\n   ************* All Branches passed integrity testing\n   ************* Testing Individual Supply Air Path Integrity\n   ************* All Supply Air Paths passed integrity testing\n   ************* Testing Individual Return Air Path Integrity\n   ************* All Return Air Paths passed integrity testing\n   ************* No node connection errors were found.\n   ************* Beginning Simulation\n   ** Warning ** Processing Monthly Tabular Reports: Variable names not valid for this simulation\n   **   ~~~   ** ...use Output:Diagnostics,DisplayExtraWarnings; to show more details on individual variables.\n   ** Warning ** The resource referenced by LifeCycleCost:UsePriceEscalation= \"U.S. AVG  COMMERCIAL-ELECTRICITY\" has no energy cost. \n   **   ~~~   ** ... It is likely that the wrong resource is used. The resource should match the meter used in Utility:Tariff.\n   ** Warning ** The resource referenced by LifeCycleCost:UsePriceEscalation= \"U.S. AVG  COMMERCIAL-DISTILLATE OIL\" has no energy cost. \n   **   ~~~   ** ... It is likely that the wrong resource is used. The resource should match the meter used in Utility:Tariff.\n   ** Warning ** The resource referenced by LifeCycleCost:UsePriceEscalation= \"U.S. AVG  COMMERCIAL-RESIDUAL OIL\" has no energy cost. \n   **   ~~~   ** ... It is likely that the wrong resource is used. The resource should match the meter used in Utility:Tariff.\n   ** Warning ** The resource referenced by LifeCycleCost:UsePriceEscalation= \"U.S. AVG  COMMERCIAL-NATURAL GAS\" has no energy cost. \n   **   ~~~   ** ... It is likely that the wrong resource is used. The resource should match the meter used in Utility:Tariff.\n   ** Warning ** The resource referenced by LifeCycleCost:UsePriceEscalation= \"U.S. AVG  COMMERCIAL-COAL\" has no energy cost. \n   **   ~~~   ** ... It is likely that the wrong resource is used. The resource should match the meter used in Utility:Tariff.\n   ************* Simulation Error Summary *************\n   ************* There are 5 unused schedules in input.\n   ************* There are 5 unused week schedules in input.\n   ************* There are 5 unused day schedules in input.\n   ************* Use Output:Diagnostics,DisplayUnusedSchedules; to see them.\n   ************* EnergyPlus Warmup Error Summary. During Warmup: 0 Warning; 0 Severe Errors.\n   ************* EnergyPlus Sizing Error Summary. During Sizing: 0 Warning; 0 Severe Errors.\n   ************* EnergyPlus Completed Successfully-- 15 Warning; 0 Severe Errors; Elapsed Time=00hr 01min 16.42sec\n",
   "file_paths" : 
   [
      "/Users/kcu/Desktop/Scripting/NREL_Work/Cooling_Boxes/Draft/generated_files",
      "/Users/kcu/Desktop/Scripting/NREL_Work/Cooling_Boxes/Draft",
      "./files",
      "./weather",
      "../../files",
      "../../weather",
      "./"
   ],
   "hash" : "1D4F9125",
   "measure_paths" : 
   [
      "/Users/kcu/Desktop/Scripting/NREL_Work/Cooling_Boxes/Measure Development"
   ],
   "seed_file" : "/Users/kcu/Desktop/Scripting/NREL_Work/Cooling_Boxes/Draft/07_2zones_20191224_RunBatch_out.osm",
   "started_at" : "20210118T063911Z",
   "steps" : 
   [
      {
         "arguments" : 
         {
            "input_csv_folder_path" : "/Users/kcu/Desktop/Scripting/NREL_Work/Cooling_Boxes/Draft/PAT_calibration_input",
            "test_data" : "Experiment8_200214_input.csv"
         },
         "measure_dir_name" : "PAT_Csv_Input",
         "result" : 
         {
            "completed_at" : "20210118T063919Z",
            "measure_class_name" : "Input_CSV",
            "measure_display_name" : "InputCSV",
            "measure_name" : "input_csv",
            "measure_taxonomy" : "HVAC.Cooling",
            "measure_type" : "ModelMeasure",
            "measure_uid" : "ca3bcc61-7088-4801-befe-a2e8e696fa37",
            "measure_version_id" : "a3736530-cc5d-41e0-b306-cf3f6e298366",
            "measure_version_modified" : "20210116T075916Z",
            "measure_xml_checksum" : "01858CFD",
            "started_at" : "20210118T063911Z",
            "stderr" : "",
            "stdout" : "",
            "step_errors" : [],
            "step_files" : [],
            "step_final_condition" : "Output: /Users/kcu/Desktop/Scripting/NREL_Work/Cooling_Boxes/Draft/Experiment8_200214_input_out.csv",
            "step_info" : 
            [
               "Join input exist: /Users/kcu/Desktop/Scripting/NREL_Work/Cooling_Boxes/Draft/PAT_calibration_input/Experiment8_200214_input.csv",
               "\u043f\u00bb\u0457Time ; Total Internal Heat Gain ; External_temp ; Internal_temp_space ; HVAC_Schedule ; ConvectionLoadRatio ; RadiationLoadRatio ; Measure_PeriodShedule ; CoolingPower ; Inlet_water ; Plenum_Temp ; Cooling_Schedule ; Mixing_Schedule",
               "170 - First_Warmup_row: [[\"\u043f\u00bb\u0457Time\", \"2019/01/01 00:01\"], [\"Total Internal Heat Gain\", \"0.0\"], [\"External_temp\", \"22.07\"], [\"Internal_temp_space\", \"36.27\"], [\"HVAC_Schedule\", \"1.0\"], [\"ConvectionLoadRatio\", \"0.0\"], [\"RadiationLoadRatio\", \"0.0\"], [\"Measure_PeriodShedule\", \"0.0\"], [\"CoolingPower\", \"0.0\"], [\"Inlet_water\", \"23.86\"], [\"Plenum_Temp\", \"44.57\"], [\"Cooling_Schedule\", 0.0], [\"Mixing_Schedule\", 0.0]]",
               "171 - End_Warmup_row: [[\"\u043f\u00bb\u0457Time\", \"2019/01/02 00:00\"], [\"Total Internal Heat Gain\", \"0.0\"], [\"External_temp\", \"22.07\"], [\"Internal_temp_space\", \"36.27\"], [\"HVAC_Schedule\", \"1.0\"], [\"ConvectionLoadRatio\", \"0.0\"], [\"RadiationLoadRatio\", \"0.0\"], [\"Measure_PeriodShedule\", \"0.0\"], [\"CoolingPower\", \"0.0\"], [\"Inlet_water\", \"23.86\"], [\"Plenum_Temp\", \"44.57\"], [\"Cooling_Schedule\", 0.0], [\"Mixing_Schedule\", 0.0]]",
               "234 - First_Test_row: [[\"\u043f\u00bb\u0457Time\", \"2019/01/02 00:01\"], [\"Total Internal Heat Gain\", \"26.35\"], [\"External_temp\", \"22.07\"], [\"Internal_temp_space\", \"36.27\"], [\"HVAC_Schedule\", \"1.0\"], [\"ConvectionLoadRatio\", \"0.2635\"], [\"RadiationLoadRatio\", \"0.0\"], [\"Measure_PeriodShedule\", \"1.0\"], [\"CoolingPower\", \"0\"], [\"Inlet_water\", \"23.86\"], [\"Plenum_Temp\", \"44.57\"], [\"Cooling_Schedule\", \"0.0\"], [\"Mixing_Schedule\", \"0.0\"]]",
               "235 - Second_Test_row: [[\"\u043f\u00bb\u0457Time\", \"2019/01/02 00:02\"], [\"Total Internal Heat Gain\", \"26.43\"], [\"External_temp\", \"22.13\"], [\"Internal_temp_space\", \"36.43\"], [\"HVAC_Schedule\", \"0.0\"], [\"ConvectionLoadRatio\", \"0.2643\"], [\"RadiationLoadRatio\", \"0.0\"], [\"Measure_PeriodShedule\", \"1.0\"], [\"CoolingPower\", \"0\"], [\"Inlet_water\", \"23.79\"], [\"Plenum_Temp\", \"44.57\"], [\"Cooling_Schedule\", \"0.0\"], [\"Mixing_Schedule\", \"1.0\"]]",
               "236 - End_Cooling_row: [[\"\u043f\u00bb\u0457Time\", \"2019/01/03 22:23\"], [\"Total Internal Heat Gain\", \"26.45\"], [\"External_temp\", \"21.8\"], [\"Internal_temp_space\", \"34.14\"], [\"HVAC_Schedule\", \"0.0\"], [\"ConvectionLoadRatio\", \"0.2645\"], [\"RadiationLoadRatio\", \"0.0\"], [\"Measure_PeriodShedule\", \"1.0\"], [\"CoolingPower\", \"32.86100245\"], [\"Inlet_water\", \"23.93\"], [\"Plenum_Temp\", \"43.92\"], [\"Cooling_Schedule\", \"1.0\"], [\"Mixing_Schedule\", \"1.0\"]]",
               "237 - End_Test_row: [[\"\u043f\u00bb\u0457Time\", \"2019/01/03 23:12\"], [\"Total Internal Heat Gain\", \"26.39\"], [\"External_temp\", \"21.31\"], [\"Internal_temp_space\", \"34.17\"], [\"HVAC_Schedule\", \"0.0\"], [\"ConvectionLoadRatio\", \"0.2639\"], [\"RadiationLoadRatio\", \"0.0\"], [\"Measure_PeriodShedule\", \"1.0\"], [\"CoolingPower\", \"34.88219845\"], [\"Inlet_water\", \"23.95\"], [\"Plenum_Temp\", \"43.83\"], [\"Cooling_Schedule\", \"1.0\"], [\"Mixing_Schedule\", \"1.0\"]]",
               "253 - First_Remain_row: [[\"\u043f\u00bb\u0457Time\", \"2019/01/03 23:13\"], [\"Total Internal Heat Gain\", \"0.0\"], [\"External_temp\", \"21.31\"], [\"Internal_temp_space\", \"34.17\"], [\"HVAC_Schedule\", \"1.0\"], [\"ConvectionLoadRatio\", \"0.0\"], [\"RadiationLoadRatio\", \"0.0\"], [\"Measure_PeriodShedule\", \"0.0\"], [\"CoolingPower\", \"34.88219845\"], [\"Inlet_water\", \"23.95\"], [\"Plenum_Temp\", \"43.83\"], [\"Cooling_Schedule\", 0.0], [\"Mixing_Schedule\", 0.0]]",
               "256 - End_Remain_row: [[\"\u043f\u00bb\u0457Time\", \"2020/01/01 00:00\"], [\"Total Internal Heat Gain\", \"0.0\"], [\"External_temp\", \"21.31\"], [\"Internal_temp_space\", \"34.17\"], [\"HVAC_Schedule\", \"1.0\"], [\"ConvectionLoadRatio\", \"0.0\"], [\"RadiationLoadRatio\", \"0.0\"], [\"Measure_PeriodShedule\", \"0.0\"], [\"CoolingPower\", \"34.88219845\"], [\"Inlet_water\", \"23.95\"], [\"Plenum_Temp\", \"43.83\"], [\"Cooling_Schedule\", 0.0], [\"Mixing_Schedule\", 0.0]]",
               "RawInput_period: 2020/02/12 16:46 - 2020/02/14 15:57",
               "Metered_period: 01/02/2019 00:01 - 01/03/2019 23:12"
            ],
            "step_initial_condition" : "Input: /Users/kcu/Desktop/Scripting/NREL_Work/Cooling_Boxes/Draft/PAT_calibration_input/Experiment8_200214_input.csv",
            "step_result" : "Success",
            "step_values" : 
            [
               {
                  "name" : "input_csv_folder_path",
                  "value" : "/Users/kcu/Desktop/Scripting/NREL_Work/Cooling_Boxes/Draft/PAT_calibration_input"
               },
               {
                  "name" : "test_data",
                  "value" : "Experiment8_200214_input.csv"
               },
               {
                  "name" : "year_input",
                  "value" : 2019
               },
               {
                  "name" : "measure_run_csv_path",
                  "value" : "/Users/kcu/Desktop/Scripting/NREL_Work/Cooling_Boxes/Draft/Experiment8_200214_input_out.csv"
               },
               {
                  "name" : "measure_meter_csv_path",
                  "value" : "/Users/kcu/Desktop/Scripting/NREL_Work/Cooling_Boxes/Draft/Experiment8_200214_input_metered.csv"
               }
            ],
            "step_warnings" : []
         }
      },
      {
         "arguments" : 
         {
            "r_value" : 0.037999999999999999,
            "rcoil_coff" : 0.75,
            "zone_capacitance_value" : 21
         },
         "measure_dir_name" : "PAT_Model_Input_new",
         "result" : 
         {
            "completed_at" : "20210118T063919Z",
            "measure_class_name" : "ModelInputRCoil",
            "measure_display_name" : "ModelInputRCoil",
            "measure_name" : "model_input_r_coil",
            "measure_taxonomy" : "HVAC.Cooling",
            "measure_type" : "ModelMeasure",
            "measure_uid" : "a17fe54c-d703-4390-adfd-f19364e384ac",
            "measure_version_id" : "a7227128-8374-46f4-9cd0-1be187790ce9",
            "measure_version_modified" : "20201227T231027Z",
            "measure_xml_checksum" : "01858CFD",
            "started_at" : "20210118T063919Z",
            "stderr" : "",
            "stdout" : "",
            "step_errors" : [],
            "step_files" : [],
            "step_final_condition" : "Following objects created:\n      OS:ElectricEquipment:Definition,\n  {2070437f-cd7e-49e1-8466-dd159038c014}, !- Handle\n  Convective_Internal_gain_100.0W,        !- Name\n  EquipmentLevel,                         !- Design Level Calculation Method\n  100,                                    !- Design Level {W}\n  ,                                       !- Watts per Space Floor Area {W/m2}\n  ;                                       !- Watts per Person {W/person}\n\n,\n      OS:ElectricEquipment:Definition,\n  {47e64300-51fd-4acf-9ad8-8fb7040dd3f7}, !- Handle\n  Radiative_Internal_gain_100.0W,         !- Name\n  EquipmentLevel,                         !- Design Level Calculation Method\n  100,                                    !- Design Level {W}\n  ,                                       !- Watts per Space Floor Area {W/m2}\n  ,                                       !- Watts per Person {W/person}\n  ,                                       !- Fraction Latent\n  1;                                      !- Fraction Radiant\n\n",
            "step_info" : 
            [
               "",
               "Clean up model done",
               "OS:Schedule:File,\n  {5e78d7a8-24f5-4da5-8489-4188d66ac3e3}, !- Handle\n  CONVECTIVE_LOAD_SCHEDULE,               !- Name\n  {c50de33e-2a31-403b-929e-8d1c42a993ef}, !- Schedule Type Limits Name\n  {7aa3cdf6-7517-460d-a117-c6800f0f2047}, !- External File Name\n  6,                                      !- Column Number\n  1,                                      !- Rows to Skip at Top\n  ,                                       !- Number of Hours of Data\n  ,                                       !- Column Separator\n  ,                                       !- Interpolate to Timestep\n  1;                                      !- Minutes per Item\n\n"
            ],
            "step_initial_condition" : "Input: /Users/kcu/Desktop/Scripting/NREL_Work/Cooling_Boxes/Draft/Experiment8_200214_input_out.csv",
            "step_result" : "Success",
            "step_values" : 
            [
               {
                  "name" : "input_csv_path",
                  "value" : "\"data_file.csv\""
               },
               {
                  "name" : "rcoil_coff",
                  "value" : 0.75
               },
               {
                  "name" : "zone_capacitance_value",
                  "value" : 21.0
               },
               {
                  "name" : "r_value",
                  "value" : 0.037999999999999999
               }
            ],
            "step_warnings" : []
         }
      },
      {
         "arguments" : 
         {
            "bronze_thermal_mass_layer_thickness" : 0.01,
            "plenum_surface_area" : 0.01,
            "plenum_thickness" : 0.01,
            "surface_area" : 0.01
         },
         "measure_dir_name" : "PAT_ThermalMass",
         "result" : 
         {
            "completed_at" : "20210118T063919Z",
            "measure_class_name" : "ThermalMassInput",
            "measure_display_name" : "Thermal Mass Input",
            "measure_name" : "thermal_mass_input",
            "measure_taxonomy" : "HVAC.Cooling",
            "measure_type" : "ModelMeasure",
            "measure_uid" : "8ef13913-d320-4e90-85b4-fd960681767c",
            "measure_version_id" : "17ffcc7d-b47b-4bbb-b402-2ce5b11bef84",
            "measure_version_modified" : "20201026T222240Z",
            "measure_xml_checksum" : "01858CFD",
            "started_at" : "20210118T063919Z",
            "stderr" : "",
            "stdout" : "",
            "step_errors" : [],
            "step_files" : [],
            "step_info" : [],
            "step_initial_condition" : "Input - bronze_thermal_mass_layer_thickness: 0.01",
            "step_result" : "Success",
            "step_values" : 
            [
               {
                  "name" : "surface_area",
                  "value" : 0.01
               },
               {
                  "name" : "bronze_thermal_mass_layer_thickness",
                  "value" : 0.01
               },
               {
                  "name" : "plenum_surface_area",
                  "value" : 0.01
               },
               {
                  "name" : "plenum_thickness",
                  "value" : 0.01
               }
            ],
            "step_warnings" : []
         }
      },
      {
         "arguments" : 
         {
            "mixing_flowrate" : 0.0015
         },
         "measure_dir_name" : "ideal_loads_options",
         "result" : 
         {
            "completed_at" : "20210118T063919Z",
            "measure_class_name" : "IdealLoadsOptions",
            "measure_display_name" : "Ideal Loads Options",
            "measure_name" : "ideal_loads_options",
            "measure_taxonomy" : "HVAC.Whole System",
            "measure_type" : "EnergyPlusMeasure",
            "measure_uid" : "ae756607-68ba-4615-87df-a0870beede98",
            "measure_version_id" : "c53feba8-88f8-4926-9cd0-1e3b4c28d388",
            "measure_version_modified" : "20210113T161422Z",
            "measure_xml_checksum" : "DAE0171F",
            "started_at" : "20210118T063919Z",
            "stderr" : "",
            "stdout" : "",
            "step_errors" : [],
            "step_files" : [],
            "step_info" : 
            [
               "TEst: true",
               "System Name: PlenumZone",
               "System Name: ConditionedZone",
               "System Name: Compressor",
               "ZoneCrossMixing,\n  Conditioned_SourcePlenum,               !- Name\n  ConditionedZone,                        ! Zone Name\n  Mixing_Schedule,                        !- Schedule Name\n  Flow/Zone,                              !- Design Flow Rate Calculation Method\n  0.0015,                                 !- Design Flow Rate {m3/s}\n  ,                                       !- Flow Rate per Zone Floor Area {m3/s-m2}\n  ,                                       !- Flow Rate per Person {m3/s-person}\n  10,                                     !- Air Changes per Hour {1/hr}\n  PlenumZone,                             ! Source Zone Name\n  0;                                      ! Delta temp\n\n",
               "",
               "ScheduleFile\nSchedule:File,\n  RADIATION_LOAD_SCHEDULE,                !- Name\n  Fractional,                             !- Schedule Type Limits Name\n  /Users/kcu/Desktop/Scripting/NREL_Work/Cooling_Boxes/Draft/generated_files/Experiment8_200214_input_out.csv, !- File Name\n  7,                                      !- Column Number\n  1,                                      !- Rows to Skip at Top\n  ,                                       !- Number of Hours of Data\n  Comma,                                  !- Column Separator\n  No,                                     !- Interpolate to Timestep\n  1;                                      !- Minutes per Item\n\n",
               "ScheduleFile\nSchedule:File,\n  Mixing_Schedule,                        !- Name\n  Fractional,                             !- Schedule Type Limits Name\n  /Users/kcu/Desktop/Scripting/NREL_Work/Cooling_Boxes/Draft/generated_files/Experiment8_200214_input_out.csv, !- File Name\n  13,                                     !- Column Number\n  1,                                      !- Rows to Skip at Top\n  ,                                       !- Number of Hours of Data\n  Comma,                                  !- Column Separator\n  No,                                     !- Interpolate to Timestep\n  1;                                      !- Minutes per Item\n\n",
               "ScheduleFile\nSchedule:File,\n  MEASURED_WATER_INLET_TEMPERATURE,       !- Name\n  Temperature,                            !- Schedule Type Limits Name\n  /Users/kcu/Desktop/Scripting/NREL_Work/Cooling_Boxes/Draft/generated_files/Experiment8_200214_input_out.csv, !- File Name\n  10,                                     !- Column Number\n  1,                                      !- Rows to Skip at Top\n  ,                                       !- Number of Hours of Data\n  Comma,                                  !- Column Separator\n  No,                                     !- Interpolate to Timestep\n  1;                                      !- Minutes per Item\n\n",
               "ScheduleFile\nSchedule:File,\n  MEASURED_COOLING_POWER,                 !- Name\n  Temperature,                            !- Schedule Type Limits Name\n  /Users/kcu/Desktop/Scripting/NREL_Work/Cooling_Boxes/Draft/generated_files/Experiment8_200214_input_out.csv, !- File Name\n  9,                                      !- Column Number\n  1,                                      !- Rows to Skip at Top\n  ,                                       !- Number of Hours of Data\n  Comma,                                  !- Column Separator\n  No,                                     !- Interpolate to Timestep\n  1;                                      !- Minutes per Item\n\n",
               "ScheduleFile\nSchedule:File,\n  MEASURED_TOTAL_HEAT_GAIN,               !- Name\n  HeatGainSchedule,                       !- Schedule Type Limits Name\n  /Users/kcu/Desktop/Scripting/NREL_Work/Cooling_Boxes/Draft/generated_files/Experiment8_200214_input_out.csv, !- File Name\n  2,                                      !- Column Number\n  1,                                      !- Rows to Skip at Top\n  ,                                       !- Number of Hours of Data\n  Comma,                                  !- Column Separator\n  No,                                     !- Interpolate to Timestep\n  1;                                      !- Minutes per Item\n\n",
               "ScheduleFile\nSchedule:File,\n  HVAC_SCHEDULE,                          !- Name\n  Temperature,                            !- Schedule Type Limits Name\n  /Users/kcu/Desktop/Scripting/NREL_Work/Cooling_Boxes/Draft/generated_files/Experiment8_200214_input_out.csv, !- File Name\n  5,                                      !- Column Number\n  1,                                      !- Rows to Skip at Top\n  ,                                       !- Number of Hours of Data\n  Comma,                                  !- Column Separator\n  No,                                     !- Interpolate to Timestep\n  1;                                      !- Minutes per Item\n\n",
               "ScheduleFile\nSchedule:File,\n  Cooling_schedule_file,                  !- Name\n  Fractional,                             !- Schedule Type Limits Name\n  /Users/kcu/Desktop/Scripting/NREL_Work/Cooling_Boxes/Draft/generated_files/Experiment8_200214_input_out.csv, !- File Name\n  12,                                     !- Column Number\n  1,                                      !- Rows to Skip at Top\n  ,                                       !- Number of Hours of Data\n  Comma,                                  !- Column Separator\n  No,                                     !- Interpolate to Timestep\n  1;                                      !- Minutes per Item\n\n",
               "ScheduleFile\nSchedule:File,\n  MEASURED_PLENUM_TEMPERATURE,            !- Name\n  Temperature,                            !- Schedule Type Limits Name\n  /Users/kcu/Desktop/Scripting/NREL_Work/Cooling_Boxes/Draft/generated_files/Experiment8_200214_input_out.csv, !- File Name\n  11,                                     !- Column Number\n  1,                                      !- Rows to Skip at Top\n  ,                                       !- Number of Hours of Data\n  Comma,                                  !- Column Separator\n  No,                                     !- Interpolate to Timestep\n  1;                                      !- Minutes per Item\n\n",
               "ScheduleFile\nSchedule:File,\n  MeasuredPeriod,                         !- Name\n  Fractional,                             !- Schedule Type Limits Name\n  /Users/kcu/Desktop/Scripting/NREL_Work/Cooling_Boxes/Draft/generated_files/Experiment8_200214_input_out.csv, !- File Name\n  8,                                      !- Column Number\n  1,                                      !- Rows to Skip at Top\n  ,                                       !- Number of Hours of Data\n  Comma,                                  !- Column Separator\n  No,                                     !- Interpolate to Timestep\n  1;                                      !- Minutes per Item\n\n",
               "ScheduleFile\nSchedule:File,\n  MEASURED_CHAMBER_TEMPERATURE,           !- Name\n  Temperature,                            !- Schedule Type Limits Name\n  /Users/kcu/Desktop/Scripting/NREL_Work/Cooling_Boxes/Draft/generated_files/Experiment8_200214_input_out.csv, !- File Name\n  4,                                      !- Column Number\n  1,                                      !- Rows to Skip at Top\n  ,                                       !- Number of Hours of Data\n  Comma,                                  !- Column Separator\n  No,                                     !- Interpolate to Timestep\n  1;                                      !- Minutes per Item\n\n",
               "ScheduleFile\nSchedule:File,\n  CONVECTIVE_LOAD_SCHEDULE,               !- Name\n  Fractional,                             !- Schedule Type Limits Name\n  /Users/kcu/Desktop/Scripting/NREL_Work/Cooling_Boxes/Draft/generated_files/Experiment8_200214_input_out.csv, !- File Name\n  6,                                      !- Column Number\n  1,                                      !- Rows to Skip at Top\n  ,                                       !- Number of Hours of Data\n  Comma,                                  !- Column Separator\n  No,                                     !- Interpolate to Timestep\n  1;                                      !- Minutes per Item\n\n",
               "ScheduleFile\nSchedule:File,\n  MEASURED_EXTERNAL_TEMPERATURE,          !- Name\n  Temperature,                            !- Schedule Type Limits Name\n  /Users/kcu/Desktop/Scripting/NREL_Work/Cooling_Boxes/Draft/generated_files/Experiment8_200214_input_out.csv, !- File Name\n  3,                                      !- Column Number\n  1,                                      !- Rows to Skip at Top\n  ,                                       !- Number of Hours of Data\n  Comma,                                  !- Column Separator\n  No,                                     !- Interpolate to Timestep\n  1;                                      !- Minutes per Item\n\n",
               "ArgumentValue: "
            ],
            "step_result" : "Success",
            "step_values" : 
            [
               {
                  "name" : "idealLoadSystem",
                  "value" : "ConditionedZone"
               },
               {
                  "name" : "availability_schedule",
                  "value" : "HVAC_SCHEDULE"
               },
               {
                  "name" : "mixing_flowrate",
                  "value" : 0.0015
               }
            ],
            "step_warnings" : []
         }
      },
      {
         "arguments" : 
         {
            "plot_name" : "Test8_RCoil_RunBatch0.75_CyclopentanceRvalue:0.038_zoneCap:21.0\n_ThermalMassArea:0.01_ThermalMassThickness:0.01_PlenumThermalMassArea:0.01_PlenumThermalMassThickness:0.01_MixingFlow_rate:0.0015",
            "reporting_frequency" : "Timestep",
            "seconds" : false,
            "year" : true
         },
         "measure_dir_name" : "TimeSeries Objective Function",
         "result" : 
         {
            "completed_at" : "20210118T064037Z",
            "measure_class_name" : "TimeseriesObjectiveFunction",
            "measure_display_name" : "TimeSeries Objective Function",
            "measure_name" : "timeseries_objective_function",
            "measure_taxonomy" : "Reporting.QAQC",
            "measure_type" : "ReportingMeasure",
            "measure_uid" : "6804217d-4737-45f3-82df-b81393c29ce3",
            "measure_version_id" : "20aea571-d2eb-464c-ba76-7659863a4016",
            "measure_version_modified" : "20210113T224813Z",
            "measure_xml_checksum" : "FFE04372",
            "started_at" : "20210118T064036Z",
            "stderr" : "",
            "stdout" : "",
            "step_errors" : [],
            "step_files" : 
            [
               "/Users/kcu/Desktop/Scripting/NREL_Work/Cooling_Boxes/Draft/run/004_TimeSeries Objective Function/timeseries_ZoneTemperature.json",
               "/Users/kcu/Desktop/Scripting/NREL_Work/Cooling_Boxes/Draft/run/004_TimeSeries Objective Function/report_Test8_RCoil_RunBatch0.75_CyclopentanceRvalue:0.038_zoneCap:21.0\n_ThermalMassArea:0.01_ThermalMassThickness:0.01_PlenumThermalMassArea:0.01_PlenumThermalMassThickness:0.01_MixingFlow_rate:0.0015.html",
               "/Users/kcu/Desktop/Scripting/NREL_Work/Cooling_Boxes/Draft/run/004_TimeSeries Objective Function/allseries_ZoneTemperature.json"
            ],
            "step_info" : 
            [
               "csv_name: ../../../lib/Experiment2_200114_input_out.csv - csv_time_header Date/Time, csv_var - ZoneTemperature, sql_key - ConditionedZone",
               "csv_name: /Users/kcu/Desktop/Scripting/NREL_Work/Cooling_Boxes/Draft/Experiment8_200214_input_metered.csv",
               "environment_period: RUN PERIOD 1",
               "environment_periods: [\"RUN PERIOD 1\"]",
               "map: {\"ZoneTemperature\"=>{:key=>\"ConditionedZone\", :var=>\"Zone Air Temperature\", :index=>0}}",
               "final_avail: true",
               "available timeseries: [\"DistrictCooling:Facility\", \"DistrictHeating:Facility\", \"Electric Equipment Electric Power\", \"Electricity:Facility\", \"Schedule Value\", \"Site Diffuse Solar Radiation Rate per Area\", \"Site Direct Solar Radiation Rate per Area\", \"Site Outdoor Air Drybulb Temperature\", \"Site Wind Speed\", \"Zone Air Heat Balance Air Energy Storage Rate\", \"Zone Air Heat Balance Deviation Rate\", \"Zone Air Heat Balance Internal Convective Heat Gain Rate\", \"Zone Air Heat Balance Outdoor Air Transfer Rate\", \"Zone Air Heat Balance Surface Convection Rate\", \"Zone Air Heat Balance System Air Transfer Rate\", \"Zone Air Heat Balance System Convective Heat Gain Rate\", \"Zone Air System Sensible Cooling Energy\", \"Zone Air System Sensible Heating Energy\", \"Zone Air Temperature\", \"Zone Electric Equipment Electric Power\", \"Zone Electric Equipment Total Heating Energy\", \"Zone Electric Equipment Total Heating Rate\", \"Zone Ideal Loads Zone Total Cooling Energy\", \"Zone Ideal Loads Zone Total Cooling Rate\", \"Zone Mixing Current Density Volume Flow Rate\", \"Zone Opaque Surface Inside Faces Total Conduction Heat Gain Energy\", \"Zone Opaque Surface Inside Faces Total Conduction Heat Loss Energy\", \"Zone Total Internal Convective Heating Rate\", \"Zone Total Internal Radiant Heating Rate\", \"Zone Total Internal Total Heating Rate\"]",
               "",
               "available EnvPeriod: RUN PERIOD 1, available ReportingFrequencies: [\"Daily\", \"Zone Timestep\"]",
               "available variable names: [\"Electricity:Facility\"]",
               "variable names: Electricity:Facility",
               "available key value: [\"\"]",
               "available variable names: [\"DistrictCooling:Facility\", \"DistrictHeating:Facility\", \"Electric Equipment Electric Power\", \"Electricity:Facility\", \"Schedule Value\", \"Site Diffuse Solar Radiation Rate per Area\", \"Site Direct Solar Radiation Rate per Area\", \"Site Outdoor Air Drybulb Temperature\", \"Site Wind Speed\", \"Zone Air Heat Balance Air Energy Storage Rate\", \"Zone Air Heat Balance Deviation Rate\", \"Zone Air Heat Balance Internal Convective Heat Gain Rate\", \"Zone Air Heat Balance Outdoor Air Transfer Rate\", \"Zone Air Heat Balance Surface Convection Rate\", \"Zone Air Heat Balance System Air Transfer Rate\", \"Zone Air Heat Balance System Convective Heat Gain Rate\", \"Zone Air System Sensible Cooling Energy\", \"Zone Air System Sensible Heating Energy\", \"Zone Air Temperature\", \"Zone Electric Equipment Electric Power\", \"Zone Electric Equipment Total Heating Energy\", \"Zone Electric Equipment Total Heating Rate\", \"Zone Ideal Loads Zone Total Cooling Energy\", \"Zone Ideal Loads Zone Total Cooling Rate\", \"Zone Mixing Current Density Volume Flow Rate\", \"Zone Opaque Surface Inside Faces Total Conduction Heat Gain Energy\", \"Zone Opaque Surface Inside Faces Total Conduction Heat Loss Energy\", \"Zone Total Internal Convective Heating Rate\", \"Zone Total Internal Radiant Heating Rate\", \"Zone Total Internal Total Heating Rate\"]",
               "variable names: DistrictCooling:Facility",
               "available key value: [\"\"]",
               "variable names: DistrictHeating:Facility",
               "available key value: [\"\"]",
               "variable names: Electric Equipment Electric Power",
               "available key value: [\"PLENUMZONE_CONVECTIVEINTERNALGAIN\", \"PLENUMZONE_RADIATIONINTERNALGAIN\"]",
               "variable names: Electricity:Facility",
               "available key value: [\"\"]",
               "variable names: Schedule Value",
               "available key value: [\"CONVECTIVE_LOAD_SCHEDULE\", \"COOLING_SCHEDULE_FILE\", \"HVAC_SCHEDULE\", \"MEASUREDPERIOD\", \"MEASURED_CHAMBER_TEMPERATURE\", \"MEASURED_COOLING_POWER\", \"MEASURED_EXTERNAL_TEMPERATURE\", \"MEASURED_PLENUM_TEMPERATURE\", \"MEASURED_TOTAL_HEAT_GAIN\", \"MEASURED_WATER_INLET_TEMPERATURE\", \"MIXING_SCHEDULE\", \"RADIATION_LOAD_SCHEDULE\"]",
               "variable names: Site Diffuse Solar Radiation Rate per Area",
               "available key value: [\"Environment\"]",
               "variable names: Site Direct Solar Radiation Rate per Area",
               "available key value: [\"Environment\"]",
               "variable names: Site Outdoor Air Drybulb Temperature",
               "available key value: [\"Environment\"]",
               "variable names: Site Wind Speed",
               "available key value: [\"Environment\"]",
               "variable names: Zone Air Heat Balance Air Energy Storage Rate",
               "available key value: [\"CONDITIONEDZONE\", \"PLENUMZONE\"]",
               "variable names: Zone Air Heat Balance Deviation Rate",
               "available key value: [\"CONDITIONEDZONE\", \"PLENUMZONE\"]",
               "variable names: Zone Air Heat Balance Internal Convective Heat Gain Rate",
               "available key value: [\"CONDITIONEDZONE\", \"PLENUMZONE\"]",
               "variable names: Zone Air Heat Balance Outdoor Air Transfer Rate",
               "available key value: [\"CONDITIONEDZONE\", \"PLENUMZONE\"]",
               "variable names: Zone Air Heat Balance Surface Convection Rate",
               "available key value: [\"CONDITIONEDZONE\", \"PLENUMZONE\"]",
               "variable names: Zone Air Heat Balance System Air Transfer Rate",
               "available key value: [\"CONDITIONEDZONE\", \"PLENUMZONE\"]",
               "variable names: Zone Air Heat Balance System Convective Heat Gain Rate",
               "available key value: [\"CONDITIONEDZONE\", \"PLENUMZONE\"]",
               "variable names: Zone Air System Sensible Cooling Energy",
               "available key value: [\"CONDITIONEDZONE\", \"PLENUMZONE\"]",
               "variable names: Zone Air System Sensible Heating Energy",
               "available key value: [\"CONDITIONEDZONE\", \"PLENUMZONE\"]",
               "variable names: Zone Air Temperature",
               "available key value: [\"CONDITIONEDZONE\", \"PLENUMZONE\"]",
               "variable names: Zone Electric Equipment Electric Power",
               "available key value: [\"CONDITIONEDZONE\", \"PLENUMZONE\"]",
               "variable names: Zone Electric Equipment Total Heating Energy",
               "available key value: [\"CONDITIONEDZONE\", \"PLENUMZONE\"]",
               "variable names: Zone Electric Equipment Total Heating Rate",
               "available key value: [\"CONDITIONEDZONE\", \"PLENUMZONE\"]",
               "variable names: Zone Ideal Loads Zone Total Cooling Energy",
               "available key value: [\"COMPRESSOR IDEAL LOADS AIR SYSTEM\", \"CONDITIONEDZONE IDEAL LOADS AIR SYSTEM\", \"PLENUMZONE IDEAL LOADS AIR SYSTEM\"]",
               "variable names: Zone Ideal Loads Zone Total Cooling Rate",
               "available key value: [\"COMPRESSOR IDEAL LOADS AIR SYSTEM\", \"CONDITIONEDZONE IDEAL LOADS AIR SYSTEM\", \"PLENUMZONE IDEAL LOADS AIR SYSTEM\"]",
               "variable names: Zone Mixing Current Density Volume Flow Rate",
               "available key value: [\"CONDITIONEDZONE\", \"PLENUMZONE\"]",
               "variable names: Zone Opaque Surface Inside Faces Total Conduction Heat Gain Energy",
               "available key value: [\"CONDITIONEDZONE\", \"PLENUMZONE\"]",
               "variable names: Zone Opaque Surface Inside Faces Total Conduction Heat Loss Energy",
               "available key value: [\"CONDITIONEDZONE\", \"PLENUMZONE\"]",
               "variable names: Zone Total Internal Convective Heating Rate",
               "available key value: [\"CONDITIONEDZONE\", \"PLENUMZONE\"]",
               "variable names: Zone Total Internal Radiant Heating Rate",
               "available key value: [\"CONDITIONEDZONE\", \"PLENUMZONE\"]",
               "variable names: Zone Total Internal Total Heating Rate",
               "available key value: [\"CONDITIONEDZONE\", \"PLENUMZONE\"]",
               "year: true",
               "seconds: false",
               "CSV Time format is correct: 01/02/2019 00:01 mm:dd:yy hh:mm",
               "Begin timeseries parsing",
               "timezone = -8.0",
               "timezone = -08:00",
               "{\"ZoneTemperature\"=>{:key=>\"ConditionedZone\", :var=>\"Zone Air Temperature\", :index=>0}} ",
               "Date/Time - Date/Time - false - [\"ZoneTemperature\"]   - true",
               "Found Time Header: Date/Time",
               "ZoneTemperature - Date/Time - true - [\"ZoneTemperature\"]   - false",
               "hdr is: ZoneTemperature",
               "csv_var is: ZoneTemperature",
               "var: Zone Air Temperature",
               "key: ConditionedZone",
               "[\"RUN PERIOD 1\"]",
               "sqlcall: RUN PERIOD 1,Timestep,Zone Air Temperature,ConditionedZone",
               "ySum - 101983.95999999985 - n -> 2292",
               "PlenumTemperature - Date/Time - true - [\"ZoneTemperature\"]   - true",
               "Saving timeseries_ZoneTemperature.json",
               "start plotting"
            ],
            "step_result" : "Success",
            "step_values" : 
            [
               {
                  "name" : "diff",
                  "units" : "",
                  "value" : 1422.4992504979637
               },
               {
                  "name" : "simdata",
                  "units" : "",
                  "value" : 102917.20119558331
               },
               {
                  "name" : "csvdata",
                  "units" : "",
                  "value" : 101983.95999999985
               },
               {
                  "name" : "cvrmse",
                  "units" : "",
                  "value" : 1.7548163170865205
               },
               {
                  "name" : "nmbe",
                  "units" : "",
                  "value" : -0.91508625040954361
               },
               {
                  "name" : "zone_temperature_nmbe",
                  "units" : "",
                  "value" : -0.91508625040954361
               },
               {
                  "name" : "zone_temperature_cvrmse",
                  "units" : "",
                  "value" : 1.7548163170865205
               }
            ],
            "step_warnings" : []
         }
      },
      {
         "arguments" : 
         {
            "csv_var" : "PlenumTemperature",
            "key_value" : "PLENUMZONE",
            "plot_name" : "PlenumZoneTest8_RCoil_RunBatch0.75_CyclopentanceRvalue:0.038_zoneCap:21.0\n_ThermalMassArea:0.01_ThermalMassThickness:0.01_PlenumThermalMassArea:0.01_PlenumThermalMassThickness:0.01_MixingFlow_rate:0.0015",
            "reporting_frequency" : "Timestep",
            "seconds" : false,
            "year" : true
         },
         "measure_dir_name" : "TimeSeries Objective Function",
         "result" : 
         {
            "completed_at" : "20210118T064037Z",
            "measure_class_name" : "TimeseriesObjectiveFunction",
            "measure_display_name" : "TimeSeries Objective Function",
            "measure_name" : "timeseries_objective_function",
            "measure_taxonomy" : "Reporting.QAQC",
            "measure_type" : "ReportingMeasure",
            "measure_uid" : "6804217d-4737-45f3-82df-b81393c29ce3",
            "measure_version_id" : "20aea571-d2eb-464c-ba76-7659863a4016",
            "measure_version_modified" : "20210113T224813Z",
            "measure_xml_checksum" : "FFE04372",
            "started_at" : "20210118T064037Z",
            "stderr" : "",
            "stdout" : "",
            "step_errors" : [],
            "step_files" : 
            [
               "/Users/kcu/Desktop/Scripting/NREL_Work/Cooling_Boxes/Draft/run/005_TimeSeries Objective Function/allseries_PlenumTemperature.json",
               "/Users/kcu/Desktop/Scripting/NREL_Work/Cooling_Boxes/Draft/run/005_TimeSeries Objective Function/report_PlenumZoneTest8_RCoil_RunBatch0.75_CyclopentanceRvalue:0.038_zoneCap:21.0\n_ThermalMassArea:0.01_ThermalMassThickness:0.01_PlenumThermalMassArea:0.01_PlenumThermalMassThickness:0.01_MixingFlow_rate:0.0015.html",
               "/Users/kcu/Desktop/Scripting/NREL_Work/Cooling_Boxes/Draft/run/005_TimeSeries Objective Function/timeseries_PlenumTemperature.json"
            ],
            "step_info" : 
            [
               "csv_name: ../../../lib/Experiment2_200114_input_out.csv - csv_time_header Date/Time, csv_var - PlenumTemperature, sql_key - PLENUMZONE",
               "csv_name: /Users/kcu/Desktop/Scripting/NREL_Work/Cooling_Boxes/Draft/Experiment8_200214_input_metered.csv",
               "environment_period: RUN PERIOD 1",
               "environment_periods: [\"RUN PERIOD 1\"]",
               "map: {\"PlenumTemperature\"=>{:key=>\"PLENUMZONE\", :var=>\"Zone Air Temperature\", :index=>0}}",
               "final_avail: true",
               "available timeseries: [\"DistrictCooling:Facility\", \"DistrictHeating:Facility\", \"Electric Equipment Electric Power\", \"Electricity:Facility\", \"Schedule Value\", \"Site Diffuse Solar Radiation Rate per Area\", \"Site Direct Solar Radiation Rate per Area\", \"Site Outdoor Air Drybulb Temperature\", \"Site Wind Speed\", \"Zone Air Heat Balance Air Energy Storage Rate\", \"Zone Air Heat Balance Deviation Rate\", \"Zone Air Heat Balance Internal Convective Heat Gain Rate\", \"Zone Air Heat Balance Outdoor Air Transfer Rate\", \"Zone Air Heat Balance Surface Convection Rate\", \"Zone Air Heat Balance System Air Transfer Rate\", \"Zone Air Heat Balance System Convective Heat Gain Rate\", \"Zone Air System Sensible Cooling Energy\", \"Zone Air System Sensible Heating Energy\", \"Zone Air Temperature\", \"Zone Electric Equipment Electric Power\", \"Zone Electric Equipment Total Heating Energy\", \"Zone Electric Equipment Total Heating Rate\", \"Zone Ideal Loads Zone Total Cooling Energy\", \"Zone Ideal Loads Zone Total Cooling Rate\", \"Zone Mixing Current Density Volume Flow Rate\", \"Zone Opaque Surface Inside Faces Total Conduction Heat Gain Energy\", \"Zone Opaque Surface Inside Faces Total Conduction Heat Loss Energy\", \"Zone Total Internal Convective Heating Rate\", \"Zone Total Internal Radiant Heating Rate\", \"Zone Total Internal Total Heating Rate\"]",
               "",
               "available EnvPeriod: RUN PERIOD 1, available ReportingFrequencies: [\"Daily\", \"Zone Timestep\"]",
               "available variable names: [\"Electricity:Facility\"]",
               "variable names: Electricity:Facility",
               "available key value: [\"\"]",
               "available variable names: [\"DistrictCooling:Facility\", \"DistrictHeating:Facility\", \"Electric Equipment Electric Power\", \"Electricity:Facility\", \"Schedule Value\", \"Site Diffuse Solar Radiation Rate per Area\", \"Site Direct Solar Radiation Rate per Area\", \"Site Outdoor Air Drybulb Temperature\", \"Site Wind Speed\", \"Zone Air Heat Balance Air Energy Storage Rate\", \"Zone Air Heat Balance Deviation Rate\", \"Zone Air Heat Balance Internal Convective Heat Gain Rate\", \"Zone Air Heat Balance Outdoor Air Transfer Rate\", \"Zone Air Heat Balance Surface Convection Rate\", \"Zone Air Heat Balance System Air Transfer Rate\", \"Zone Air Heat Balance System Convective Heat Gain Rate\", \"Zone Air System Sensible Cooling Energy\", \"Zone Air System Sensible Heating Energy\", \"Zone Air Temperature\", \"Zone Electric Equipment Electric Power\", \"Zone Electric Equipment Total Heating Energy\", \"Zone Electric Equipment Total Heating Rate\", \"Zone Ideal Loads Zone Total Cooling Energy\", \"Zone Ideal Loads Zone Total Cooling Rate\", \"Zone Mixing Current Density Volume Flow Rate\", \"Zone Opaque Surface Inside Faces Total Conduction Heat Gain Energy\", \"Zone Opaque Surface Inside Faces Total Conduction Heat Loss Energy\", \"Zone Total Internal Convective Heating Rate\", \"Zone Total Internal Radiant Heating Rate\", \"Zone Total Internal Total Heating Rate\"]",
               "variable names: DistrictCooling:Facility",
               "available key value: [\"\"]",
               "variable names: DistrictHeating:Facility",
               "available key value: [\"\"]",
               "variable names: Electric Equipment Electric Power",
               "available key value: [\"PLENUMZONE_CONVECTIVEINTERNALGAIN\", \"PLENUMZONE_RADIATIONINTERNALGAIN\"]",
               "variable names: Electricity:Facility",
               "available key value: [\"\"]",
               "variable names: Schedule Value",
               "available key value: [\"CONVECTIVE_LOAD_SCHEDULE\", \"COOLING_SCHEDULE_FILE\", \"HVAC_SCHEDULE\", \"MEASUREDPERIOD\", \"MEASURED_CHAMBER_TEMPERATURE\", \"MEASURED_COOLING_POWER\", \"MEASURED_EXTERNAL_TEMPERATURE\", \"MEASURED_PLENUM_TEMPERATURE\", \"MEASURED_TOTAL_HEAT_GAIN\", \"MEASURED_WATER_INLET_TEMPERATURE\", \"MIXING_SCHEDULE\", \"RADIATION_LOAD_SCHEDULE\"]",
               "variable names: Site Diffuse Solar Radiation Rate per Area",
               "available key value: [\"Environment\"]",
               "variable names: Site Direct Solar Radiation Rate per Area",
               "available key value: [\"Environment\"]",
               "variable names: Site Outdoor Air Drybulb Temperature",
               "available key value: [\"Environment\"]",
               "variable names: Site Wind Speed",
               "available key value: [\"Environment\"]",
               "variable names: Zone Air Heat Balance Air Energy Storage Rate",
               "available key value: [\"CONDITIONEDZONE\", \"PLENUMZONE\"]",
               "variable names: Zone Air Heat Balance Deviation Rate",
               "available key value: [\"CONDITIONEDZONE\", \"PLENUMZONE\"]",
               "variable names: Zone Air Heat Balance Internal Convective Heat Gain Rate",
               "available key value: [\"CONDITIONEDZONE\", \"PLENUMZONE\"]",
               "variable names: Zone Air Heat Balance Outdoor Air Transfer Rate",
               "available key value: [\"CONDITIONEDZONE\", \"PLENUMZONE\"]",
               "variable names: Zone Air Heat Balance Surface Convection Rate",
               "available key value: [\"CONDITIONEDZONE\", \"PLENUMZONE\"]",
               "variable names: Zone Air Heat Balance System Air Transfer Rate",
               "available key value: [\"CONDITIONEDZONE\", \"PLENUMZONE\"]",
               "variable names: Zone Air Heat Balance System Convective Heat Gain Rate",
               "available key value: [\"CONDITIONEDZONE\", \"PLENUMZONE\"]",
               "variable names: Zone Air System Sensible Cooling Energy",
               "available key value: [\"CONDITIONEDZONE\", \"PLENUMZONE\"]",
               "variable names: Zone Air System Sensible Heating Energy",
               "available key value: [\"CONDITIONEDZONE\", \"PLENUMZONE\"]",
               "variable names: Zone Air Temperature",
               "available key value: [\"CONDITIONEDZONE\", \"PLENUMZONE\"]",
               "variable names: Zone Electric Equipment Electric Power",
               "available key value: [\"CONDITIONEDZONE\", \"PLENUMZONE\"]",
               "variable names: Zone Electric Equipment Total Heating Energy",
               "available key value: [\"CONDITIONEDZONE\", \"PLENUMZONE\"]",
               "variable names: Zone Electric Equipment Total Heating Rate",
               "available key value: [\"CONDITIONEDZONE\", \"PLENUMZONE\"]",
               "variable names: Zone Ideal Loads Zone Total Cooling Energy",
               "available key value: [\"COMPRESSOR IDEAL LOADS AIR SYSTEM\", \"CONDITIONEDZONE IDEAL LOADS AIR SYSTEM\", \"PLENUMZONE IDEAL LOADS AIR SYSTEM\"]",
               "variable names: Zone Ideal Loads Zone Total Cooling Rate",
               "available key value: [\"COMPRESSOR IDEAL LOADS AIR SYSTEM\", \"CONDITIONEDZONE IDEAL LOADS AIR SYSTEM\", \"PLENUMZONE IDEAL LOADS AIR SYSTEM\"]",
               "variable names: Zone Mixing Current Density Volume Flow Rate",
               "available key value: [\"CONDITIONEDZONE\", \"PLENUMZONE\"]",
               "variable names: Zone Opaque Surface Inside Faces Total Conduction Heat Gain Energy",
               "available key value: [\"CONDITIONEDZONE\", \"PLENUMZONE\"]",
               "variable names: Zone Opaque Surface Inside Faces Total Conduction Heat Loss Energy",
               "available key value: [\"CONDITIONEDZONE\", \"PLENUMZONE\"]",
               "variable names: Zone Total Internal Convective Heating Rate",
               "available key value: [\"CONDITIONEDZONE\", \"PLENUMZONE\"]",
               "variable names: Zone Total Internal Radiant Heating Rate",
               "available key value: [\"CONDITIONEDZONE\", \"PLENUMZONE\"]",
               "variable names: Zone Total Internal Total Heating Rate",
               "available key value: [\"CONDITIONEDZONE\", \"PLENUMZONE\"]",
               "year: true",
               "seconds: false",
               "CSV Time format is correct: 01/02/2019 00:01 mm:dd:yy hh:mm",
               "Begin timeseries parsing",
               "timezone = -8.0",
               "timezone = -08:00",
               "{\"PlenumTemperature\"=>{:key=>\"PLENUMZONE\", :var=>\"Zone Air Temperature\", :index=>0}} ",
               "Date/Time - Date/Time - false - [\"PlenumTemperature\"]   - true",
               "Found Time Header: Date/Time",
               "ZoneTemperature - Date/Time - true - [\"PlenumTemperature\"]   - true",
               "PlenumTemperature - Date/Time - true - [\"PlenumTemperature\"]   - false",
               "hdr is: PlenumTemperature",
               "csv_var is: PlenumTemperature",
               "var: Zone Air Temperature",
               "key: PLENUMZONE",
               "[\"RUN PERIOD 1\"]",
               "sqlcall: RUN PERIOD 1,Timestep,Zone Air Temperature,PLENUMZONE",
               "ySum - 120776.65999999958 - n -> 2292",
               "Saving timeseries_PlenumTemperature.json",
               "start plotting"
            ],
            "step_result" : "Success",
            "step_values" : 
            [
               {
                  "name" : "diff",
                  "units" : "",
                  "value" : 7154.6557843026931
               },
               {
                  "name" : "simdata",
                  "units" : "",
                  "value" : 127931.31578430301
               },
               {
                  "name" : "csvdata",
                  "units" : "",
                  "value" : 120776.65999999958
               },
               {
                  "name" : "cvrmse",
                  "units" : "",
                  "value" : 6.2346510280179377
               },
               {
                  "name" : "nmbe",
                  "units" : "",
                  "value" : -5.9238728611163092
               },
               {
                  "name" : "plenum_temperature_nmbe",
                  "units" : "",
                  "value" : -5.9238728611163092
               },
               {
                  "name" : "plenum_temperature_cvrmse",
                  "units" : "",
                  "value" : 6.2346510280179377
               }
            ],
            "step_warnings" : []
         }
      }
   ],
   "updated_at" : "20210118T064039Z",
   "weather_file" : "/Users/kcu/Desktop/Scripting/NREL_Work/Cooling_Boxes/OS_Model/CA_EL-MONTE_747043_17.epw"
}